/batch
/config,noeldb,1     ! force off writing results to database
*get,_wallstrt,active,,time,wall
! ANSYS input file written by Workbench version 2024 R2
! File used for geometry attach: C:\Users\29804\Desktop\Finite element simulation exam\ansys\test_files\dp0\global\MECH\SYS\AssembledModel\SYS.pmdb
/title,test--____ (B4)
! ****** Begin Custom Load Command Snippet ******
/COM, ACT Extensions:
/COM,     LSDYNA, 2024.2
/COM,     5f463412-bd3e-484b-87e7-cbc0a665e474, wbex
/COM,/COM,     SoS, 24.2
/COM,     d4c1ed2d-5104-4509-b078-5ad95b712df1, wbex
/COM,/COM,     ANSYSMotion, 2024.2
/COM,     20180725-3f81-49eb-9f31-41364844c769, wbex
/COM,
! ****** End   Custom Load Command Snippet ******
*DIM,_wb_ProjectScratch_dir,string,248
_wb_ProjectScratch_dir(1) = 'C:\Users\29804\Desktop\Finite element simulation exam\ansys\_ProjectScratch\Scr2663\'
*DIM,_wb_SolverFiles_dir,string,248
_wb_SolverFiles_dir(1) = 'C:\Users\29804\Desktop\Finite element simulation exam\ansys\test_files\dp0\SYS\MECH\'
*DIM,_wb_userfiles_dir,string,248
_wb_userfiles_dir(1) = 'C:\Users\29804\Desktop\Finite element simulation exam\ansys\test_files\user_files\'
/com,--- Data in consistent NMM units. See Solving Units in the help system for more information.
/units,MPA
/nopr
/wb,file,start              !  signify a WB generated input file
/prep7
! Turn off shape checking because checks already performed inside WB mesher.
! See help system for more information.
SHPP,OFF,,NOWARN
/nolist
etcon,set             ! allow ANSYS to choose best KEYOP's for 180x elements, resets any applicable keyopt to MAPDL defaults
/com,*********** Nodes for the whole assembly ***********
nblock,3,,6763
(1i9,3e20.9e3)
        1     0.000000000E+00     0.000000000E+00     0.000000000E+00
        2     0.000000000E+00     1.000000000E+00     0.000000000E+00
        3     0.000000000E+00     2.000000000E+00     0.000000000E+00
        4     0.000000000E+00     3.000000000E+00     0.000000000E+00
        5     0.000000000E+00     4.000000000E+00     0.000000000E+00
        6     0.000000000E+00     5.000000000E+00     0.000000000E+00
        7     0.000000000E+00     6.000000000E+00     0.000000000E+00
        8     0.000000000E+00     7.000000000E+00     0.000000000E+00
        9     0.000000000E+00     8.000000000E+00     0.000000000E+00
       10     0.000000000E+00     9.000000000E+00     0.000000000E+00
       11     0.000000000E+00     1.000000000E+01     0.000000000E+00
       12     0.000000000E+00     1.100000000E+01     0.000000000E+00
       13     0.000000000E+00     1.200000000E+01     0.000000000E+00
       14     0.000000000E+00     1.300000000E+01     0.000000000E+00
       15     0.000000000E+00     1.400000000E+01     0.000000000E+00
       16     0.000000000E+00     1.500000000E+01     0.000000000E+00
       17     0.000000000E+00     1.600000000E+01     0.000000000E+00
       18     0.000000000E+00     1.700000000E+01     0.000000000E+00
       19     0.000000000E+00     1.800000000E+01     0.000000000E+00
       20     0.000000000E+00     1.900000000E+01     0.000000000E+00
! ... 6130 like lines cut
/wb,elem,start            !  set before creation of elements
/com,*********** Elements for Body 1 'Surface Body 1(____)' ***********
et,1,182
keyo,1,3,3
eblock,19,solid,,5993
(19i9)
        1        1        1        1        0        0        0        0        4        0      254      789      775      810      810
        1        1        1        1        0        0        0        0        4        0      497     1048     1024      999      999
        1        1        1        1        0        0        0        0        4        0      664     1184     1155     1211     1211
        1        1        1        1        0        0        0        0        4        0      824     1339     1373     1308     1308
        1        1        1        1        0        0        0        0        4        0      866     1351     1388     1395     1395
        1        1        1        1        0        0        0        0        4        0      936     1423     1455     1474     1474
        1        1        1        1        0        0        0        0        4        0     1023     1529     1568     1499     1499
        1        1        1        1        0        0        0        0        4        0     1122     1631     1587     1658     1658
        1        1        1        1        0        0        0        0        4        0     1127     1637     1595     1665     1665
        1        1        1        1        0        0        0        0        4        0     1134     1606     1641     1678     1678
        1        1        1        1        0        0        0        0        4        0     1137     1663     1613     1664     1664
        1        1        1        1        0        0        0        0        4        0     1160     1703     1655     1628     1628
        1        1        1        1        0        0        0        0        4        0     1171     1663     1701     1654     1654
        1        1        1        1        0        0        0        0        4        0     1223     1760     1729      250      250
        1        1        1        1        0        0        0        0        4        0     1224     1714     1759     1703     1703
        1        1        1        1        0        0        0        0        4        0     1251     1715     1761     1781     1781
        1        1        1        1        0        0        0        0        4        0     1282     1782     1753     1818     1818
        1        1        1        1        0        0        0        0        4        0     1332     1839     1798     1850     1850
        1        1        1        1        0        0        0        0        4        0     1334     1869     1831     1792     1792
        1        1        1        1        0        0        0        0        4        0     1336     1844     1788     1868     1868
! ... 5974 like lines cut
! Material Id = {1A8AB7AC-0B1C-4517-82C6-1EE4545583E6}
/wb,elem,end               !  done creating elements
/com,*********** Send User Defined Coordinate System(s) ***********
csys,0
toffst,273.15,      ! Temperature offset from absolute zero
/com,*********** Set Reference Temperature ***********
tref,22.
/wb,mat,start              !  starting to send materials
/com,*********** Send Materials ***********
Temperature = 'TEMP' ! Temperature
MP,DENS,1,7.85e-09,	! tonne mm^-3
MP,ALPX,1,1.2e-05,	! C^-1
MP,C,1,434000000,	! mm^2 s^-2 C^-1
MP,KXX,1,60.5,	! tonne mm s^-3 C^-1
MP,RSVX,1,0.00017,	! ohm mm
MP,EX,1,210000,	! tonne s^-2 mm^-1
MP,NUXY,1,0.3,
MP,MURX,1,10000,
MP,UVID,1,729543b6-6a5d-45f5-962e-1aee597b5fec
MP,UMID,1,59002a79-71c2-428e-906b-55d7dbee100e

/wb,mat,end                !  done sending materials
/com,*********** Send Sheet Properties ***********
r,1,10.

!************************* Model Summary ********************
!Surface Body 1(),	,	matid,	1
!************************* End Model Summary ********************
! get the diagonal of the bounding box. Needed later for other things
*get,_xmin,node,,mnloc,x
*get,_ymin,node,,mnloc,y
*get,_zmin,node,,mnloc,z
*get,_xmax,node,,mxloc,x
*get,_ymax,node,,mxloc,y
*get,_zmax,node,,mxloc,z
_ASMDIAG=(_xmax-_xmin)*(_xmax-_xmin)+(_ymax-_ymin)*(_ymax-_ymin)+(_zmax-_zmin)*(_zmax-_zmin)
_ASMDIAG=SQRT(_ASMDIAG)
/wb,contact,start          !  starting to send contact
/wb,contact,end            !  done creating contacts
CMBLOCK,PROPERTY1,ELEM,     5993
(8i10)
         1         2         3         4         5         6         7         8
         9        10        11        12        13        14        15        16
        17        18        19        20        21        22        23        24
        25        26        27        28        29        30        31        32
        33        34        35        36        37        38        39        40
        41        42        43        44        45        46        47        48
        49        50        51        52        53        54        55        56
        57        58        59        60        61        62        63        64
        65        66        67        68        69        70        71        72
        73        74        75        76        77        78        79        80
        81        82        83        84        85        86        87        88
        89        90        91        92        93        94        95        96
        97        98        99       100       101       102       103       104
       105       106       107       108       109       110       111       112
       113       114       115       116       117       118       119       120
       121       122       123       124       125       126       127       128
       129       130       131       132       133       134       135       136
       137       138       139       140       141       142       143       144
       145       146       147       148       149       150       151       152
       153       154       155       156       157       158       159       160
! ... 730 like lines cut
/golist
/wb,load,start             !  starting to send loads
/com,*********** Fixed Supports ***********
CMBLOCK,_FIXEDSU,NODE,       51
(8i10)
        51        52        53        54        55        56        57        58
        59        60        61        62        63        64        65        66
        67        68        69        70        71        72        73        74
        75        76        77        78        79        80        81        82
        83        84        85        86        87        88        89        90
        91        92        93        94        95        96        97        98
        99       100       101
cmsel,s,_FIXEDSU
d,all,all
nsel,all
/com,*********** Define Vertex Force Using Follower Elements ***********
et,2,201
keyo,2,1,1          ! Keep the direction constant
keyo,2,2,1          ! Apply Forces only, not moment
mat,2
real,2
type,2
en,5994,301
r,2
rmod,2,1,1.0,              ! FX
mat,3
real,3
type,2
en,5995,301
r,3
rmod,3,2,1.0,              ! FY
/gst,on,on
fini
*get,_numnode,node,0,count
*get,_numelem,elem,0,count
*get, _MAXELEMNUM, elem, 0, NUM, MAX
*get, _MAXNODENUM, node, 0, NUM, MAX
*get, _MAXELEMTYPE, etyp, 0, NUM, MAX
*get, _MAXREALCONST, rcon, 0, NUM, MAX
/go
/wb,load,end               !  done creating loads
/com,--- Number of total nodes = %_numnode%
/com,--- Number of contact elements = 0
/com,--- Number of spring elements = 0
/com,--- Number of bearing elements = 0
/com,--- Number of solid elements = 5993
/com,--- Number of condensed parts = 0
/com,--- Number of total elements = %_numelem%
*get,_wallbsol,active,,time,wall
/com,****************************************************************************
/com,*************************    SOLUTION       ********************************
/com,****************************************************************************
/solu
antype,4                   ! transient analysis type for quasi static solution
_thickRatio=  0     ! Ratio of thick parts in the model
eqsl,sparse,,,,,1
cntr,print,1               ! print out contact info and also make no initial contact an error
cncheck,dmp		!	Enable program controlled contact splitting for distributed memory parallel run
dmpoption,emat,no             ! Don't combine emat file for DANSYS
dmpoption,esav,no             ! Don't combine esav file for DANSYS
tintp,quas				   ! Backward Euler Time Integration for quasi static solution 
trnopt,,,,,,,,,yes        ! Enable numerical damping for quasi static solution
nldiag,cont,iter           ! print out contact info each equilibrium iteration
rescontrol,,none                 ! Do not keep any restart files
/com,****************************************************
/com,******************* SOLVE FOR LS 1 OF 1 ****************
esel,s,real,,2
sfe,all,1,pres,1,0.
esel,s,real,,3
sfe,all,1,pres,1,-1000.
esel,all
/nopr
/gopr
nsub,1,1,1
time,20.
outres,erase
outres,all,none
outres,nsol,all,
outres,rsol,all
outres,eangl,all
outres,etmp,all
outres,veng,all
outres,strs,all,
outres,epel,all,
outres,eppl,all,
outres,cont,all,
! *********** WB SOLVE COMMAND ***********
! check interactive state
*get,ANSINTER_,active,,int
*if,ANSINTER_,ne,0,then
/eof
*endif
solve
/com *************** Write FE CONNECTORS ********* 
CEWRITE,file,ce,,INTE
/com,****************************************************
/com,*************** FINISHED SOLVE FOR LS 1 *************
*get,_wallasol,active,,time,wall
/nopr
*get,_numnode,node,0,count
*get,_numelem,elem,0,count
*get, _MAXELEMNUM, elem, 0, NUM, MAX
*get, _MAXNODENUM, node, 0, NUM, MAX,,,INTERNAL
*get, _MAXELEMTYPE, etyp, 0, NUM, MAX
*get, _MAXREALCONST, rcon, 0, NUM, MAX
*get,_NSOLTHREADS,active,0,ntfs
*get,_NSOLPROCESSES,active,0,npfs
/gopr
/post1
xmlo,ENCODING,ISO-8859-1
xmlo,parm
/xml,parm,xml
fini
/gopr
*get,_walldone,active,,time,wall
_preptime=(_wallbsol-_wallstrt)*3600
_solvtime=(_wallasol-_wallbsol)*3600
_posttime=(_walldone-_wallasol)*3600
_totaltim=(_walldone-_wallstrt)*3600
*get,_dlbratio,active,0,solu,dlbr
*get,_combtime,active,0,solu,comb
*get,_ssmode,active,0,solu,ssmm
*get,_ndofs,active,0,solu,ndof
*get,_sol_end_time,active,0,set,time
*if,_sol_end_time,eq,20.000000,then
/fclean				!clean distributed files
*endif
/com,--- Total number of nodes = %_numnode%
/com,--- Total number of elements = %_numelem%
/com,--- Element load balance ratio = %_dlbratio%
/com,--- Time to combine distributed files = %_combtime%
/com,--- Sparse memory mode = %_ssmode%
/com,--- Number of DOF = %_ndofs%
/wb,file,end               ! done with WB generated input
